2
Properties=species:S:1:pos:R:3:forces:R:3 Hydrogen=T Molecule=T energy=1.0705480418543278 pbc="F F F"
H        0.00000000      -0.00000000       0.11028250      -0.00000000       0.00000000       0.03485308
H       -0.00000000      -0.00000000       0.88971750       0.00000000      -0.00000000      -0.03485308
2
Properties=species:S:1:pos:R:3:forces:R:3 Hydrogen=T Molecule=T energy=1.0706800019178375 pbc="F F F"
H        0.00000000      -0.00000000       0.10959578      -0.00000000       0.00000000       0.15707773
H       -0.00000000      -0.00000000       0.89040422       0.00000000      -0.00000000      -0.15707773
2
Properties=species:S:1:pos:R:3:forces:R:3 Hydrogen=T Molecule=T energy=1.0711002572460788 pbc="F F F"
H        0.00000000      -0.00000000       0.10870394      -0.00000000       0.00000000       0.31376635
H       -0.00000000      -0.00000000       0.89129606       0.00000000      -0.00000000      -0.31376635
2
Properties=species:S:1:pos:R:3:forces:R:3 Hydrogen=T Molecule=T energy=1.0718067340089201 pbc="F F F"
H        0.00000000      -0.00000000       0.10780275      -0.00000000       0.00000000       0.46977928
H       -0.00000000      -0.00000000       0.89219725       0.00000000      -0.00000000      -0.46977928
2
Properties=species:S:1:pos:R:3:forces:R:3 Hydrogen=T Molecule=T energy=1.0728094586622872 pbc="F F F"
H        0.00000000      -0.00000000       0.10688784      -0.00000000       0.00000000       0.62580640
H       -0.00000000      -0.00000000       0.89311216       0.00000000      -0.00000000      -0.62580640
2
Properties=species:S:1:pos:R:3:forces:R:3 Hydrogen=T Molecule=T energy=1.074117550089154 pbc="F F F"
H        0.00000000      -0.00000000       0.10595882      -0.00000000       0.00000000       0.78183267
H       -0.00000000      -0.00000000       0.89404118       0.00000000      -0.00000000      -0.78183267
2
Properties=species:S:1:pos:R:3:forces:R:3 Hydrogen=T Molecule=T energy=1.0757406745322606 pbc="F F F"
H        0.00000000      -0.00000000       0.10501520      -0.00000000       0.00000000       0.93785836
H       -0.00000000      -0.00000000       0.89498480       0.00000000      -0.00000000      -0.93785836
2
Properties=species:S:1:pos:R:3:forces:R:3 Hydrogen=T Molecule=T energy=1.0776890236618195 pbc="F F F"
H        0.00000000      -0.00000000       0.10405644      -0.00000000       0.00000000       1.09388344
H       -0.00000000      -0.00000000       0.89594356       0.00000000      -0.00000000      -1.09388344
2
Properties=species:S:1:pos:R:3:forces:R:3 Hydrogen=T Molecule=T energy=1.079973357795626 pbc="F F F"
H        0.00000000      -0.00000000       0.10308199      -0.00000000       0.00000000       1.24990786
H       -0.00000000      -0.00000000       0.89691801       0.00000000      -0.00000000      -1.24990786
2
Properties=species:S:1:pos:R:3:forces:R:3 Hydrogen=T Molecule=T energy=1.082605051408227 pbc="F F F"
H        0.00000000      -0.00000000       0.10209124      -0.00000000       0.00000000       1.40593157
H       -0.00000000      -0.00000000       0.89790876       0.00000000      -0.00000000      -1.40593157
2
Properties=species:S:1:pos:R:3:forces:R:3 Hydrogen=T Molecule=T energy=1.0855961435062467 pbc="F F F"
H        0.00000000      -0.00000000       0.10108357      -0.00000000       0.00000000       1.56195451
H       -0.00000000      -0.00000000       0.89891643       0.00000000      -0.00000000      -1.56195451
2
Properties=species:S:1:pos:R:3:forces:R:3 Hydrogen=T Molecule=T energy=1.0889593934474573 pbc="F F F"
H        0.00000000      -0.00000000       0.10005831      -0.00000000       0.00000000       1.71797664
H       -0.00000000      -0.00000000       0.89994169       0.00000000      -0.00000000      -1.71797664
2
Properties=species:S:1:pos:R:3:forces:R:3 Hydrogen=T Molecule=T energy=1.0927083429425872 pbc="F F F"
H        0.00000000      -0.00000000       0.09901475      -0.00000000       0.00000000       1.87399788
H       -0.00000000      -0.00000000       0.90098525       0.00000000      -0.00000000      -1.87399788
2
Properties=species:S:1:pos:R:3:forces:R:3 Hydrogen=T Molecule=T energy=1.0968573850981418 pbc="F F F"
H        0.00000000      -0.00000000       0.09795211      -0.00000000       0.00000000       2.03001817
H       -0.00000000      -0.00000000       0.90204789       0.00000000      -0.00000000      -2.03001817
2
Properties=species:S:1:pos:R:3:forces:R:3 Hydrogen=T Molecule=T energy=1.1014218415031374 pbc="F F F"
H        0.00000000      -0.00000000       0.09686960      -0.00000000       0.00000000       2.18603742
H       -0.00000000      -0.00000000       0.90313040       0.00000000      -0.00000000      -2.18603742
2
Properties=species:S:1:pos:R:3:forces:R:3 Hydrogen=T Molecule=T energy=1.106418048535898 pbc="F F F"
H        0.00000000      -0.00000000       0.09576634      -0.00000000       0.00000000       2.34205554
H       -0.00000000      -0.00000000       0.90423366       0.00000000      -0.00000000      -2.34205554
2
Properties=species:S:1:pos:R:3:forces:R:3 Hydrogen=T Molecule=T energy=1.1118634542758354 pbc="F F F"
H        0.00000000      -0.00000000       0.09464141      -0.00000000       0.00000000       2.49807245
H       -0.00000000      -0.00000000       0.90535859       0.00000000      -0.00000000      -2.49807245
2
Properties=species:S:1:pos:R:3:forces:R:3 Hydrogen=T Molecule=T energy=1.1177767276579078 pbc="F F F"
H        0.00000000      -0.00000000       0.09349380      -0.00000000       0.00000000       2.65408803
H       -0.00000000      -0.00000000       0.90650620       0.00000000      -0.00000000      -2.65408803
2
Properties=species:S:1:pos:R:3:forces:R:3 Hydrogen=T Molecule=T energy=1.1241778818149069 pbc="F F F"
H        0.00000000      -0.00000000       0.09232244      -0.00000000       0.00000000       2.81010216
H       -0.00000000      -0.00000000       0.90767756       0.00000000      -0.00000000      -2.81010216
2
Properties=species:S:1:pos:R:3:forces:R:3 Hydrogen=T Molecule=T energy=1.1310884139287596 pbc="F F F"
H        0.00000000      -0.00000000       0.09112618      -0.00000000       0.00000000       2.96611471
H       -0.00000000      -0.00000000       0.90887382       0.00000000      -0.00000000      -2.96611471
2
Properties=species:S:1:pos:R:3:forces:R:3 Hydrogen=T Molecule=T energy=1.1310884139287596 pbc="F F F"
H        0.00000000      -0.00000000       0.09112618      -0.00000000       0.00000000       2.96611471
H       -0.00000000      -0.00000000       0.90887382       0.00000000      -0.00000000      -2.96611471
